Version 4
SHEET 1 3232 1588
WIRE 80 -1008 -64 -1008
WIRE 272 -1008 80 -1008
WIRE 528 -1008 272 -1008
WIRE 272 -976 272 -1008
WIRE 528 -960 528 -1008
WIRE -64 -864 -64 -1008
WIRE 272 -864 272 -896
WIRE 528 -800 528 -880
WIRE 640 -800 528 -800
WIRE 656 -800 640 -800
WIRE 528 -752 528 -800
WIRE 272 -736 272 -784
WIRE 384 -736 272 -736
WIRE 400 -736 384 -736
WIRE 272 -720 272 -736
WIRE -64 -624 -64 -784
WIRE 96 -624 -64 -624
WIRE 272 -624 272 -640
WIRE 272 -624 96 -624
WIRE 528 -624 528 -672
WIRE 528 -624 272 -624
WIRE 64 -240 48 -240
WIRE 176 -240 144 -240
WIRE 816 -192 784 -192
WIRE 944 -192 896 -192
WIRE 1008 -192 944 -192
WIRE 1392 -192 1360 -192
WIRE 1520 -192 1472 -192
WIRE 1584 -192 1520 -192
WIRE -64 -176 -96 -176
WIRE 48 -176 48 -240
WIRE 48 -176 16 -176
WIRE 48 -160 48 -176
WIRE 80 -160 48 -160
WIRE 944 -160 944 -192
WIRE 1520 -160 1520 -192
WIRE 176 -144 176 -240
WIRE 176 -144 144 -144
WIRE 208 -144 176 -144
WIRE 80 -128 48 -128
WIRE -64 -112 -96 -112
WIRE 48 -112 48 -128
WIRE 48 -112 16 -112
WIRE 48 -96 48 -112
WIRE 944 -64 944 -96
WIRE 1520 -64 1520 -96
WIRE 48 0 48 -16
WIRE 816 160 736 160
WIRE 896 160 880 160
WIRE 1008 160 976 160
WIRE 1040 160 1008 160
WIRE 1120 160 1040 160
WIRE 1456 160 1376 160
WIRE 1616 160 1456 160
WIRE 1728 160 1616 160
WIRE 112 240 96 240
WIRE 224 240 192 240
WIRE 1728 272 1728 160
WIRE -16 304 -48 304
WIRE 96 304 96 240
WIRE 96 304 64 304
WIRE 96 320 96 304
WIRE 128 320 96 320
WIRE 1040 320 1040 160
WIRE 1456 320 1456 160
WIRE 224 336 224 240
WIRE 224 336 192 336
WIRE 256 336 224 336
WIRE 128 352 96 352
WIRE -16 368 -48 368
WIRE 96 368 96 352
WIRE 96 368 64 368
WIRE 96 384 96 368
WIRE 96 480 96 464
WIRE 768 480 736 480
WIRE 1040 480 1040 384
WIRE 1040 480 768 480
WIRE 1248 480 1248 256
WIRE 1248 480 1040 480
WIRE 1456 480 1456 384
WIRE 1456 480 1248 480
WIRE 1728 480 1728 352
WIRE 1728 480 1456 480
WIRE 768 496 768 480
FLAG 96 -624 0
FLAG 80 -1008 Vac
FLAG 384 -736 Vis
FLAG 640 -800 Vvs
FLAG 944 -64 0
FLAG 784 -192 Vvs
FLAG 1008 -192 Vfilter
FLAG 112 -112 0
FLAG 112 -176 5V
FLAG -96 -112 Vis
FLAG -96 -176 0
FLAG 208 -144 Vio
FLAG 48 0 2V1
FLAG 160 368 0
FLAG 160 304 5V
FLAG -48 368 Vvs
FLAG -48 304 0
FLAG 256 336 Vvo
FLAG 96 480 2V1
FLAG 768 496 0
FLAG 736 160 Vac
FLAG 1616 160 5VDis
FLAG 1008 160 Vin
FLAG -80 -1216 0
FLAG -80 -1296 5V
FLAG 64 -1216 0
FLAG 64 -1296 2V1
FLAG 192 -1296 Vsens
FLAG 192 -1216 0
FLAG 432 -1216 0
FLAG 432 -1296 Vopamp
FLAG 1520 -64 0
FLAG 1360 -192 Vis
FLAG 1584 -192 Vfilter
SYMBOL voltage -64 -880 R0
WINDOW 0 24 96 Left 2
WINDOW 3 22 124 Left 2
WINDOW 123 0 0 Left 0
WINDOW 39 0 0 Left 0
SYMATTR InstName Vsupply1
SYMATTR Value SINE(0 17.819 500)
SYMBOL res 256 -880 R0
SYMATTR InstName Rload1
SYMATTR Value 16.474
SYMBOL ind 256 -992 R0
SYMATTR InstName Lload1
SYMATTR Value 4mH
SYMBOL res 256 -736 R0
SYMATTR InstName Rs1
SYMATTR Value 0.56
SYMBOL res 512 -976 R0
SYMATTR InstName Ra1
SYMATTR Value 220k
SYMBOL res 512 -768 R0
SYMATTR InstName Rb1
SYMATTR Value 10k
SYMBOL res 912 -208 R90
WINDOW 0 62 55 VBottom 2
WINDOW 3 61 57 VTop 2
SYMATTR InstName Rf1
SYMATTR Value 1k
SYMBOL cap 960 -96 R180
WINDOW 0 29 13 Left 2
WINDOW 3 33 -11 Left 2
SYMATTR InstName Cf1
SYMATTR Value 16nF
SYMBOL Opamps/opamp2 112 -208 R0
WINDOW 0 23 81 Left 2
WINDOW 3 24 105 Left 2
SYMATTR InstName U1
SYMATTR Value LM324
SYMBOL res 32 -128 R90
WINDOW 0 62 55 VBottom 2
WINDOW 3 61 57 VTop 2
SYMATTR InstName R1
SYMATTR Value 1k
SYMBOL res 32 -192 R90
WINDOW 0 -32 53 VBottom 2
WINDOW 3 -32 55 VTop 2
SYMATTR InstName R2
SYMATTR Value 1k
SYMBOL res 160 -256 R90
WINDOW 0 -30 61 VBottom 2
WINDOW 3 -31 62 VTop 2
SYMATTR InstName R3
SYMATTR Value 2.2k
SYMBOL res 64 0 R180
WINDOW 0 -62 57 Left 2
WINDOW 3 -44 34 Left 2
SYMATTR InstName R4
SYMATTR Value 2.2k
SYMBOL Opamps/opamp2 160 272 R0
WINDOW 0 23 81 Left 2
WINDOW 3 24 105 Left 2
SYMATTR InstName U2
SYMATTR Value LM324
SYMBOL res 80 352 R90
WINDOW 0 62 55 VBottom 2
WINDOW 3 61 57 VTop 2
SYMATTR InstName R5
SYMATTR Value 10k
SYMBOL res 80 288 R90
WINDOW 0 -32 53 VBottom 2
WINDOW 3 -32 55 VTop 2
SYMATTR InstName R6
SYMATTR Value 10k
SYMBOL res 208 224 R90
WINDOW 0 -30 61 VBottom 2
WINDOW 3 -31 62 VTop 2
SYMATTR InstName R7
SYMATTR Value 10k
SYMBOL res 112 480 R180
WINDOW 0 -62 57 Left 2
WINDOW 3 -44 34 Left 2
SYMATTR InstName R8
SYMATTR Value 10k
SYMBOL PowerProducts/LT1085-5 1248 160 R0
SYMATTR InstName Reg1
SYMBOL res 1712 256 R0
SYMATTR InstName RL1
SYMATTR Value 100
SYMBOL res 992 144 R90
WINDOW 0 0 56 VBottom 2
WINDOW 3 32 56 VTop 2
SYMATTR InstName Rin1
SYMATTR Value 33
SYMBOL diode 816 176 R270
WINDOW 0 32 32 VTop 2
WINDOW 3 0 32 VBottom 2
SYMATTR InstName D1
SYMATTR Value 1N4148
SYMBOL cap 1024 320 R0
SYMATTR InstName Cin1
SYMATTR Value 47µ
SYMATTR SpiceLine Rser=0.001
SYMBOL cap 1440 320 R0
SYMATTR InstName Cout1
SYMATTR Value 10µ
SYMATTR SpiceLine Rser=0.001
SYMBOL voltage -80 -1312 R0
WINDOW 123 0 0 Left 0
WINDOW 39 0 0 Left 0
SYMATTR InstName V1
SYMATTR Value 5V
SYMBOL voltage 64 -1312 R0
WINDOW 123 0 0 Left 0
WINDOW 39 0 0 Left 0
SYMATTR InstName V2
SYMATTR Value 2.1V
SYMBOL voltage 192 -1312 R0
WINDOW 123 0 0 Left 0
WINDOW 39 0 0 Left 0
SYMATTR InstName V3
SYMATTR Value SINE(0 0.1 500)
SYMBOL voltage 432 -1312 R0
WINDOW 123 0 0 Left 0
WINDOW 39 0 0 Left 0
SYMATTR InstName V4
SYMATTR Value SINE(2.1 1 500)
SYMBOL res 1488 -208 R90
WINDOW 0 62 55 VBottom 2
WINDOW 3 61 57 VTop 2
SYMATTR InstName Rf2
SYMATTR Value 1k
SYMBOL cap 1536 -96 R180
WINDOW 0 29 13 Left 2
WINDOW 3 33 -11 Left 2
SYMATTR InstName Cf2
SYMATTR Value 16nF
TEXT 224 -968 Right 2 ;Load \n(2.5VA-7.5VA)
TEXT 224 -680 Right 2 ;Current Sens \n(Pmax=?)
TEXT -88 -1400 Left 2 ;Power/Signal Sources
TEXT 1216 -1296 Left 2 ;.ac dec 30 1 1Meg
TEXT 1216 -1360 Left 2 !.lib LM324.lib
TEXT 1208 -1424 Left 2 ;Simulation Commands\n- Change these as needed
TEXT 1216 -1328 Left 2 !.tran 0 0.5 0 0.01m
TEXT 1216 -1264 Left 2 !.ic V(Vin)=8
TEXT -64 -1080 Left 2 ;Voltage and current sensing circuit design
TEXT -56 -496 Left 2 ;Supply a max voltage around 14V rms
TEXT -96 -336 Left 2 ;Level-shifting and amplification for current sensor
TEXT -88 144 Left 2 ;Level-shifting and amplification of Voltage sensor
TEXT 1216 -1216 Left 2 !;ac dec 30 1 1Meg
RECTANGLE Normal 232 -988 360 -772 2
RECTANGLE Normal 232 -744 360 -632 2
RECTANGLE Normal 476 -1036 612 -600 2
RECTANGLE Normal 1192 -1440 1628 -1236 2
